sim-smt: SimpleScalar/Alpha Tool Set version 3.0 of March, 2023.
Copyright (c) 1994-2003 by Todd M. Austin, Ph.D. and SimpleScalar, LLC.
All Rights Reserved. This version of SimpleScalar is licensed for academic
non-commercial use.  No portion of this work may be used by any commercial
entity, or for any commercial purpose, without the prior written permission
of SimpleScalar, LLC (info@simplescalar.com).

warning: section `.comment' ignored...
warning: section `.comment' ignored...
sim: command line: ./sim-smt -threads 2 -fastfwd 10000000 -max:inst 11000000 -redir:sim anagram_base_smt.out tests-alpha/bin/anagram tests-alpha/inputs/words tests-alpha/outputs/anagram.out 

sim: simulation started @ Tue Jul 22 03:26:38 2025, options follow:
# -config                     # load configuration from a file
# -dumpconfig                 # dump configuration to a file
# -h                    false # print help message    
# -v                    false # verbose operation     
# -d                    false # enable debug message  
# -i                    false # start in Dlite debugger
-seed                       1 # random number generator seed (0 for timer seed)
# -q                    false # initialize and terminate immediately
# -chkpt               <null> # restore EIO trace execution from <fname>
# -redir:sim     anagram_base_smt.out # redirect simulator output to file (non-interactive only)
# -redir:prog          <null> # redirect simulated program output to file
-nice                       0 # simulator scheduling priority
# -threads                  2 # number of hardware threads to create
# -fastfwd           10000000 # number of insts to fast-forward before timing
# -max:inst          11000000 # maximum number of instructions to simulate
threads 2


sim: ** simulation statistics **
sim_cycles                 22223527 # total cycles
sim_num_insn               11000000 # instructions committed
sim_num_insn_t0             5483616 # commits, thread 0
IPC_t0                       0.2467 # IPC, thread 0
sim_num_insn_t1             5516384 # commits, thread 1
IPC_t1                       0.2482 # IPC, thread 1

